/*--------------------------------*- C++ -*----------------------------------*\
| =========                 |                                                 |
| \\      /  F ield         | OpenFOAM: The Open Source CFD Toolbox           |
|  \\    /   O peration     | Version:  5                                     |
|   \\  /    A nd           | Web:      www.OpenFOAM.org                      |
|    \\/     M anipulation  |                                                 |
\*---------------------------------------------------------------------------*/
FoamFile
{
    version     2.0;
    format      ascii;
    class       dictionary;
    location    "system";
    object      fvSchemes;
}
// * * * * * * * * * * * * * * * * * * * * * * * * * * * * * * * * * * * * * //

ddtSchemes
{
    default     Euler;
}

gradSchemes
{
    default     Gauss linear;
}

divSchemes
{
    default                         none;

    "div\(phi,alpha.*\)"            Gauss vanLeer;
    "div\(phir,alpha.*\)"           Gauss vanLeer;
    "div\(phi.particles,g_nlgf\)"   Gauss vanLeer;

    "div\(alphaRhoPhi.*,U.*\)"      Gauss limitedLinearV 1;
    "div\(phi.*,U.*\)"              Gauss limitedLinearV 1;

    "div\(alphaRhoPhi.*,(h|e).*\)"  Gauss limitedLinear 1;
    "div\(alphaRhoPhi.*,K.*\)"      Gauss limitedLinear 1;
    "div\(alphaPhi.*,p\)"           Gauss limitedLinear 1;
    div(alphaRhoPhi.particles,Theta.particles) Gauss limitedLinear 1;

    "div\(alphaRhoPhi.*,(k|epsilon).*\)"  Gauss limitedLinear 1;

    div(phi.particles,ppres)        Gauss limitedLinear 1;
    
    div((((alpha.air*thermo:rho.air)*nuEff.air)*dev2(T(grad(U.air))))) Gauss linear;

    div((((alpha.particles*thermo:rho.particles)*nuEff.particles)*dev2(T(grad(U.particles))))) Gauss linear;

    div((((thermo:rho.particles*nut.particles)*dev2(T(grad(U.particles))))+(((thermo:rho.particles*lambda.particles)*div(phi.particles))*I)))  Gauss linear;

    div(((thermo:rho.particles*nut.particles)*dev2(T(grad(U.particles))))) Gauss linear;

    div(((thermo:rho.particles*eta)*dev2(T(grad(U.particles))))) Gauss linear;

    div((((thermo:rho.particles*nut.particles)*dev2(T(grad(U.particles))))+dev(tau))) Gauss linear;
    
    div(volIntegrate((S|magSf)))   Gauss linear;

    div(dev(tau))    Gauss linear;
}

laplacianSchemes
{
    default     Gauss linear uncorrected;
    bounded     Gauss linear uncorrected;
}

interpolationSchemes
{
    default     linear;
}

snGradSchemes
{
    default     uncorrected;
    bounded     uncorrected;
}

// ************************************************************************* //
